186
Properties=species:S:1:pos:R:3:forces:R:3 Na4=T Sn2=T Ge5=T O16=T energy=-988.3704555914502 stress="inf inf inf inf inf inf inf inf -inf" free_energy=-988.3704555914502 pbc="F F F"
Sn       1.80988115       5.77154492       7.82685250      -0.00000159       0.00000133      -0.00000694
Sn       4.70162012       5.16627120      11.94609859       0.00000587       0.00000098       0.00000221
Sn       1.64820749      12.04642582      15.60841476      -0.00000083       0.00000074      -0.00000710
Sn       3.55585026       0.65071005       1.91230242       0.00000017       0.00000262      -0.00001375
Sn       5.18470974       5.98657731       2.54310408      -0.00000252      -0.00000037       0.00001186
Sn       0.69606390       6.10080485      16.42151228       0.00000015      -0.00000399       0.00001674
Sn       4.63375691       9.09431573      10.66038947      -0.00000463      -0.00000419      -0.00000815
Sn       1.67338623       0.96636028       8.54821458      -0.00000422      -0.00000140       0.00000964
Ge       5.23471658       5.56268314       8.49167036      -0.00000121      -0.00000108       0.00000381
Ge       1.33576831       4.65955576      10.92449147       0.00000080       0.00000646      -0.00000134
Ge       4.79135040       0.45074658      15.68990887       0.00000387      -0.00000355      -0.00000450
Ge       5.78109057      13.81521008       4.12669841      -0.00000177       0.00000896       0.00000297
Ge       1.81919355       6.65998497       2.42545045      -0.00000489      -0.00000067      -0.00000504
Ge       4.01863242       6.33609231      17.22703754      -0.00000238       0.00000400      -0.00000869
Ge       2.93592217      -0.47800270      10.70897144       0.00000409       0.00000005       0.00000980
Ge       4.94271519      10.92213846       8.40776811       0.00000266      -0.00000390      -0.00000484
Ge       2.59258935       1.31082655       5.09071760      -0.00000032       0.00000663      -0.00000164
Ge       3.16721072       9.53189062      13.74639543       0.00000073       0.00000479       0.00000185
Ge      -0.02467604       3.28919596      14.88743856       0.00000946       0.00001270       0.00000751
Ge       5.53647960       5.42701649      14.62503897       0.00000172       0.00000113       0.00000202
Ge       1.14732102       7.94893211       5.22556937      -0.00000560       0.00000143      -0.00000579
Ge       6.40405488       8.36208819       3.99362976       0.00000345       0.00000615       0.00000337
Ge       3.70678633       3.21393677       7.07680226      -0.00000793      -0.00000197      -0.00000513
Ge       2.21241433       7.67244182      11.58102683      -0.00000281      -0.00000079      -0.00000395
Ge      -1.14056014       3.68231957      17.87285430      -0.00000903      -0.00000025      -0.00000069
Ge       7.86185087       8.52980151       1.75228637       0.00000130       0.00000284      -0.00000710
Ge       2.73632257       3.64723611       2.92434712      -0.00000039       0.00000501      -0.00000243
Ge       2.61262408       8.93769664      16.77016735      -0.00000056       0.00000132       0.00000236
Ge       6.07502420       2.61891963      13.79766306       0.00000061      -0.00000537      -0.00000751
Ge      -0.60266373       7.54584812       7.27108300       0.00000185      -0.00000018       0.00000085
Na       4.76422084       2.38769023      10.26005873      -0.00000511       0.00000266      -0.00003304
Na       2.33050722       9.41841732       8.12485680       0.00001483      -0.00001892       0.00001050
Na       5.41373647       3.03181523       0.85676568      -0.00000328      -0.00000344       0.00000332
Na      -0.39978085       9.85654873      16.94632673      -0.00000511       0.00000327       0.00001515
Na       3.14166933       3.34908496      15.52119356       0.00001034      -0.00001048      -0.00000676
Na       3.76475057      10.62346684       5.23205340      -0.00001621      -0.00001109       0.00000619
Na      -0.51038930       1.84846551      10.75994390       0.00001514      -0.00001035       0.00001424
Na       7.07720013       8.55914323       8.59251196       0.00001908       0.00000386      -0.00000635
Na      -0.80084395       0.95524336       6.37889626       0.00001467       0.00002495       0.00000375
Na       5.77717080       2.26920052       4.04373049      -0.00000505      -0.00001393       0.00002519
Na       0.10398740      10.20377637      13.33366161      -0.00000048      -0.00000573       0.00000344
Na       7.12770555      11.11745971      10.54700546      -0.00001022       0.00000599       0.00000650
Na       2.52049776       2.05479898      12.51645887      -0.00000718      -0.00000199      -0.00000844
Na       4.65453664       7.88930621       6.59805300      -0.00000046      -0.00001582      -0.00000287
Na       0.40822701       4.24969181       5.00092200       0.00001775       0.00000200      -0.00000177
Na       7.31790742       5.57167967       5.95668190      -0.00000762       0.00001903       0.00001078
Na      -0.99966280       5.73461219      12.63886382      -0.00000065      -0.00000302       0.00001270
Na       6.63706355       8.42371892      13.01180721      -0.00000936       0.00001133      -0.00000251
Na       4.71183148      -1.13762682      12.87446050      -0.00000378      -0.00000049      -0.00000509
Na       7.22718160      11.06607379       5.99366446       0.00001070      -0.00001488      -0.00000449
O        6.37419728       6.59060798       7.72468752       0.00000415      -0.00000239       0.00002231
O        0.11480335       3.80126128      11.76886901       0.00000960      -0.00000700      -0.00000488
O        4.58905136       1.82071493      14.52721626       0.00000748      -0.00000601      -0.00000345
O        7.05869621      12.87350920       4.67870346      -0.00000415      -0.00000067      -0.00001658
O        0.83729175       7.68524214       3.48560198       0.00000095       0.00000607      -0.00000439
O        5.43333740       6.33490062      16.16948520       0.00000137       0.00001260      -0.00000418
O        4.30634351       0.47295357      11.31848549      -0.00000324      -0.00000420       0.00000356
O        3.72723004      11.46320050       7.31591528      -0.00000130      -0.00000691      -0.00000549
O        5.54636005       4.96013673      10.10739865       0.00000385      -0.00000753       0.00000809
O        1.02151225       4.56236788       9.16844909       0.00000823       0.00000580       0.00000037
O        6.64606600      11.21449513       1.06244986      -0.00000336      -0.00000053      -0.00000030
O        1.61384827       2.59727864      19.12232901       0.00000265      -0.00000298      -0.00000161
O       -1.58875391       6.85493489      16.46909874       0.00000421      -0.00000808       0.00000664
O        6.05189596       5.12046286       1.10503024      -0.00002793      -0.00000277      -0.00000012
O       -2.83917436       7.03629155       8.08057378       0.00000888      -0.00000134       0.00001922
O        8.87977739       1.52286614      12.74883098      -0.00001570      -0.00000766       0.00001298
O        3.62371788       6.39822678       8.30126531      -0.00000506       0.00000227      -0.00000770
O        2.99678468       4.17166370      11.30246526       0.00000479       0.00000794      -0.00000632
O        6.65447987      12.55834898      12.48883443      -0.00000450      -0.00000339       0.00000144
O       -0.82017296       0.49864480       3.99055706      -0.00000160      -0.00000678      -0.00001036
O        3.48575149       7.10227401       2.36855145      -0.00000369      -0.00000711      -0.00001116
O        2.63206714       5.42110781      16.63562883      -0.00000163      -0.00000615       0.00001924
O       -1.43044687       9.31451799      11.69716360      -0.00002289      -0.00001735       0.00000016
O        8.84440779       1.73187015       4.17469651       0.00001299       0.00000483      -0.00000387
O        5.21805126       4.05395825       7.44277635      -0.00001591      -0.00000241       0.00000549
O        1.00479060       6.42074441      11.41807112      -0.00000109      -0.00000752       0.00000930
O        5.77751411       1.14114859      17.17893746      -0.00000514      -0.00000974      -0.00000915
O        4.22231633      12.54187535       3.88387959       0.00000809      -0.00000818      -0.00000259
O        1.47075217       4.95675721       2.81266019      -0.00001035      -0.00000287       0.00001528
O        3.59707721       7.92415778      17.89102776       0.00000104       0.00000211       0.00000230
O        1.59995982       0.84520677      10.68714389       0.00000601      -0.00000236       0.00000994
O        4.63725000       9.09121868       8.56824770       0.00000434      -0.00000581      -0.00000637
O        3.21468074       2.32473318       8.50286320      -0.00001941       0.00001461       0.00000255
O        2.51000557       9.03972213      10.51410650      -0.00000656      -0.00000231      -0.00000640
O        0.02537678       5.02024049      17.94949076      -0.00000669      -0.00001426      -0.00000057
O        6.06464074       8.19786194       2.12873689       0.00000628       0.00000109       0.00001018
O        2.93916329       2.66742726       1.48928717      -0.00000739       0.00000902      -0.00000624
O        2.06012520      10.50705004      17.21731559       0.00000484       0.00001430      -0.00000104
O        5.62235272       3.29334899      12.24689863      -0.00000854      -0.00000632      -0.00000151
O        0.76411535       7.48043338       8.41428460      -0.00000184      -0.00000297      -0.00000916
O        2.39923992       4.29243992       6.53501446      -0.00000247       0.00000139      -0.00001627
O        3.90215774       7.06941325      11.50607349       0.00000072      -0.00000237      -0.00001213
O        0.45399380       2.27468107      18.80998292       0.00000647       0.00000309      -0.00000371
O        7.38254119      10.65535108       1.91616592       0.00001247       0.00000437      -0.00001507
O        4.27191042       4.32631080       3.47365443      -0.00000038      -0.00000561       0.00000584
O        1.04616479       8.04338256      16.52264455      -0.00000052       0.00000001       0.00001243
O        7.21141792       1.27783786      13.82432032       0.00001009       0.00000318       0.00000289
O       -2.12970123       8.25462445       8.21942284       0.00001149      -0.00000552       0.00001248
O        4.11199545       2.07133016       5.74034821       0.00000995       0.00000185       0.00000404
O        1.83009311       8.43758433      13.17511645       0.00000144       0.00000190      -0.00000192
O        3.95164973       4.98091546      13.93824564      -0.00000139      -0.00000195       0.00001398
O        2.60315434       8.64210876       5.75440001      -0.00001494       0.00000759      -0.00000179
O        1.84861540       2.68006327       4.15015336       0.00000002       0.00000524      -0.00000070
O        3.64916174       8.85420636      15.32116999      -0.00000196       0.00000472       0.00000316
O        1.34176720       2.39528027      14.52037465       0.00000569       0.00000485       0.00001106
O        5.76666597       9.44825070       5.11492174       0.00000793      -0.00000244       0.00001376
O        1.54646004       0.82388286       6.38420452       0.00000233       0.00002760       0.00000641
O        4.59198757       9.62965113      12.74353090      -0.00000338       0.00000121      -0.00000187
O        0.03671003       5.09205270      14.80784118       0.00000082       0.00000340       0.00000471
O        5.98064928       6.65577095       4.32407622       0.00001061       0.00000057       0.00000656
O        2.93420075       0.10211085       3.88157365      -0.00001542       0.00001014      -0.00000722
O        2.49875883      11.15609932      13.81678803       0.00000044      -0.00000625      -0.00001133
O        6.16735590       6.20923037      13.17051579       0.00000118      -0.00000198      -0.00000088
O        0.69771050       6.33046763       6.06601370      -0.00000055       0.00000044      -0.00000705
O       -3.11997179       2.75929413       7.88579346       0.00001151       0.00002730       0.00000922
O       10.31256173      10.21492161      10.02664893       0.00001085      -0.00000560      -0.00001768
O       -0.10397058      11.30555961      15.29200318       0.00000159      -0.00000648      -0.00000486
O        2.28412927      13.92708963      15.23811902       0.00000212      -0.00000744       0.00001404
O        0.82495668      12.98005264      17.77395210      -0.00001026      -0.00000394      -0.00001967
O        3.27107742      13.13052404      16.03627997      -0.00001343      -0.00000812       0.00000829
O        0.74629106      -3.40873257       4.66736323      -0.00000679       0.00002236       0.00001066
O        2.37114991      -0.53052281       1.01527019       0.00000922      -0.00000113      -0.00001640
O       -0.00352356      -2.82789338       3.86990201      -0.00000340      -0.00001211       0.00000412
O        5.40528749       1.13910048       2.07543070       0.00000775      -0.00000403      -0.00000287
O        9.32174287       3.44107828       1.99078776       0.00001112      -0.00000667      -0.00000579
O       -1.97045776       7.52792572      14.48073649      -0.00000131       0.00000410       0.00002110
O        3.13838446      15.09205292      10.97307284       0.00000708      -0.00000925       0.00000652
O        4.66169838      11.18422668      10.23066213      -0.00000019      -0.00000522      -0.00000903
O        3.95160229      14.63945459      11.78533290      -0.00002499      -0.00001428       0.00000134
O        6.56393796       8.77484997      10.80154208       0.00000016      -0.00000043       0.00000150
O       -0.25081277       1.32944205       8.49207685      -0.00000074       0.00000239       0.00001696
O       -1.34546057      -1.77909538       6.05976539       0.00001829      -0.00000263       0.00000986
O        2.83092405      -0.66573107       8.88108526      -0.00000725       0.00000480       0.00000841
O       -0.84656563      -2.64901663       6.78263946       0.00001185       0.00000938      -0.00000318
O        4.85622721      -1.10744055      15.13071543      -0.00001338       0.00001509       0.00000784
O        3.52368563       1.16821112      16.99817744       0.00000465       0.00000906       0.00000139
O        5.44202020      13.36608147       2.17271533      -0.00000176       0.00001304       0.00000594
O        5.37713176      15.38421632       4.48931792      -0.00001034       0.00000283       0.00000178
O        0.99855620       6.86475287       0.72816520       0.00000154      -0.00001624      -0.00000637
O        4.60017567       5.38146733      18.76883250       0.00002162       0.00001282      -0.00001290
O        2.89049337      -1.87432625      11.74669423      -0.00000418      -0.00000442       0.00000556
O        6.68000558      11.06609103       8.19734430       0.00000513      -0.00000731      -0.00000517
O       -0.99158448       2.81184808      16.30884946      -0.00000984       0.00000485      -0.00000495
O       -1.69234581       2.98423268      13.43537266       0.00000809      -0.00000778      -0.00001341
O        6.44094508       3.92873893      14.98530240      -0.00000320      -0.00000026      -0.00000382
O        7.31100569      10.03897172      16.16517290      -0.00001671       0.00000138      -0.00000789
O       -4.02617513       5.10133055       4.41691771      -0.00001829      -0.00000989       0.00001496
O       -0.32530109       8.73599315       5.94510386      -0.00000473      -0.00000013      -0.00000482
O        9.64899778       8.21572469       6.06990441      -0.00002372      -0.00000723       0.00001828
O        8.18521887       8.61476809       3.54852966       0.00000798       0.00000308      -0.00000660
O       -2.44775782       3.45167963      18.85248207      -0.00001213       0.00000544      -0.00000705
O        8.80529297       8.23083764       0.44948139      -0.00000159      -0.00000303      -0.00000202
O        9.86789465       1.87915148      13.38249633       0.00000788       0.00002370      -0.00000329
O       -1.90745077       6.20785833       7.27470217      -0.00000199       0.00000378       0.00000845
O        3.83020700       3.36314802      -2.08564225       0.00000062       0.00001635      -0.00001622
O        4.87525654       2.75382662      -1.83457753      -0.00000221       0.00001034       0.00000672
O        8.89959338       2.74811043       1.06904775      -0.00001053      -0.00000019       0.00001731
O       -2.02625365       8.71182993      14.85221813      -0.00000669      -0.00000003      -0.00000878
O       -1.92622578       8.01196958      16.92183098       0.00000800      -0.00001564      -0.00000066
O       -0.13168529      12.41734205      18.35612146       0.00002578       0.00000760      -0.00000489
O        4.57888816       1.41034621      17.92263236       0.00000032      -0.00000179      -0.00000576
O        4.66499729       4.06872253      18.52548258      -0.00001752       0.00001512      -0.00000601
O        1.12823151       8.07783768       0.18715043      -0.00000028      -0.00002387       0.00000135
O        4.42053397      12.47634748       2.46683886       0.00001545      -0.00000183       0.00000175
O       -3.11379661       3.06760461       9.07393773      -0.00001328      -0.00000401      -0.00002954
O       -1.86621274       1.79409829      12.84644491      -0.00000915      -0.00000585       0.00001652
O        8.80249044       9.00026242       6.72744947      -0.00000803      -0.00000210      -0.00000277
O        9.92465998      11.36807200       9.82208502       0.00000208       0.00001721       0.00001288
O       -1.09730670       1.79329550       3.64125551       0.00001576       0.00000270      -0.00000114
O       -1.32751740       2.61365420       4.69955565      -0.00000397      -0.00000668       0.00000318
O        8.86554137       2.90853058       4.71996826      -0.00000386      -0.00001451       0.00001542
O        7.65609282       3.51566520       4.86647050       0.00000415      -0.00000763      -0.00000256
O       -2.62538925       7.43395279      11.99789669      -0.00000414       0.00002096      -0.00000030
O       -2.61659562       8.74291095      11.88582906       0.00002046       0.00001350       0.00001518
O        7.94209675      10.72983750      12.88895648       0.00000098       0.00000456       0.00000007
O        7.35639126      11.82653529      13.39565206      -0.00000724       0.00000075      -0.00000004
O       -4.46507805       4.29859289       5.23722922       0.00000478       0.00001321      -0.00004603
O        9.41061875       6.92798878       6.10983235       0.00000620       0.00002199      -0.00000689
O       -2.55467256       3.98864983      13.18939741       0.00000184      -0.00000519      -0.00001196
O        7.52261289       8.94583444      15.64202893      -0.00000349      -0.00001378       0.00000051
O        7.85112327      -0.93314190      10.91176765       0.00001937       0.00001550       0.00002618
O        7.46983088      -1.64931713      11.83492191      -0.00000791      -0.00002905      -0.00003566
O        5.50114899      15.31164543       9.22483902       0.00000628      -0.00001688      -0.00000328
O        6.15228061      14.82390833      10.14916211       0.00001824      -0.00000531      -0.00001238
Na       4.26812616      12.04099861      12.35361906       0.00000721      -0.00001589       0.00000518
Na       0.90678136      -0.64531005       2.75171750       0.00000608       0.00001377      -0.00000965
