186
Properties=species:S:1:pos:R:3:forces:R:3 Ge5=T Na4=T O16=T Sn2=T energy=-986.1982097810023 stress="-inf inf -inf inf -inf inf -inf inf -inf" free_energy=-986.1982097810023 pbc="F F F"
Sn       1.40727303       5.98523878       7.56829856       0.00001479      -0.00000703       0.00000578
Sn       5.09925320       5.92648174      11.42672982       0.00001404      -0.00000599       0.00000598
Sn       2.30393590      11.10045901      16.93251054       0.00000282      -0.00000189      -0.00000256
Sn       4.20275793       0.81185276       2.06213544       0.00000589      -0.00000511       0.00000763
Sn       5.46696508       6.38174741       2.11132465      -0.00000552       0.00000186       0.00000761
Sn       1.03921819       5.53065760      16.88353983      -0.00000211       0.00000034       0.00000503
Sn       4.38319828      10.50210078      10.42539508      -0.00000729       0.00000410      -0.00000508
Sn       2.12343049       1.40981688       8.56944171      -0.00000633       0.00000489      -0.00000237
Ge       4.74692218       6.75531701       8.07763451       0.00000959       0.00001897       0.00001397
Ge       1.75961386       5.15647346      10.91735290       0.00000648       0.00000095       0.00000277
Ge       4.88832004      -0.68583905      16.87770486      -0.00000024       0.00000150      -0.00000180
Ge       1.61724640      12.59780613       2.11780606       0.00000323       0.00001109      -0.00000417
Ge       2.08996081       6.77806526       1.99266216      -0.00001279      -0.00000417      -0.00000688
Ge       4.41618986       5.13407202      17.00246842      -0.00000637      -0.00000283      -0.00000806
Ge       3.54181856      -0.05435226      10.59682669      -0.00000693       0.00000367      -0.00000143
Ge       2.96427371      11.96630661       8.39842482       0.00000254       0.00000786      -0.00000845
Ge       3.09791498       1.82295803       5.14964284      -0.00000273       0.00000229       0.00000140
Ge       3.40873145      10.08896450      13.84510808      -0.00000493      -0.00000527      -0.00000791
Ge       0.03902863       2.95398652      15.70240077       0.00000153       0.00000913      -0.00000196
Ge       5.26051184       3.75046736      14.27626352       0.00001195      -0.00001095       0.00000006
Ge       1.24567461       8.16143157       4.71901271       0.00000290      -0.00000525      -0.00001167
Ge       6.46703094       8.95842040       3.29255366       0.00000806       0.00000180      -0.00000176
Ge       3.88088154       3.82813372       7.11672492       0.00001045       0.00001089      -0.00000257
Ge       2.62574533       8.08370446      11.87810537       0.00001689       0.00000222      -0.00000542
Ge      -1.33925005       2.86853177      18.02301247       0.00000538      -0.00000910       0.00000722
Ge       7.84511749       9.04419217       0.97183716       0.00000583       0.00000018       0.00000956
Ge       3.24032805       3.91756842       2.75703125       0.00000861      -0.00000940       0.00000308
Ge       3.26610812       7.99460967      16.23788744      -0.00000109      -0.00000750       0.00000011
Ge       7.38453961       4.17489982      12.52404532      -0.00000371      -0.00000182       0.00000185
Ge      -0.87823277       7.73680466       6.47135241       0.00000475      -0.00001975      -0.00000531
Na       4.70171912       2.70043139      10.54948585      -0.00003283      -0.00003567      -0.00000473
Na       1.80478962       9.21133506       8.44551993      -0.00000393      -0.00002889      -0.00002035
Na       6.11157439       3.16212820       1.15383991      -0.00000163      -0.00000705      -0.00000786
Na       0.39487008       8.75039757      17.84086968      -0.00000901       0.00000235      -0.00001140
Na       3.05165965       1.72498243      15.77956105      -0.00002841      -0.00000912      -0.00000878
Na       3.45429581      10.18717325       3.21577853      -0.00002398      -0.00000467      -0.00000422
Na      -0.46725557       3.24022207      10.06643945      -0.00000120       0.00000175      -0.00001357
Na       6.97393614       8.67141386       8.92855068       0.00001013       0.00000604      -0.00000505
Na      -0.30922668       1.28872858       6.40733356       0.00000771      -0.00000796      -0.00002116
Na       6.22872908       1.13270962       4.56043046      -0.00002861       0.00002265       0.00002303
Na       0.27805112      10.77980280      14.43418768      -0.00000380       0.00000268       0.00000494
Na       6.81602835      10.62282188      12.58736789       0.00001188      -0.00000575      -0.00000338
Na       1.93093695       2.42468167      12.77293928       0.00001462      -0.00000266      -0.00001354
Na       4.57536944       9.48728956       6.22221165      -0.00000394       0.00000202      -0.00001230
Na       0.58171713       4.46529834       4.52763855       0.00000099       0.00000671       0.00000682
Na       6.63241306       6.22490530       5.75886056      -0.00000720      -0.00000603      -0.00000479
Na      -0.12606903       5.68725205      13.23587584       0.00001405      -0.00000370      -0.00000668
Na       5.92474587       7.44651597      14.46738607      -0.00000243      -0.00000365       0.00003244
Na       5.51541094       0.84914562      13.40443746       0.00000715       0.00000350      -0.00001006
Na       0.99051080      11.06270282       5.59102470       0.00000143      -0.00001484      -0.00000192
O        5.74079169       7.79925164       7.14441673       0.00000629       0.00001017       0.00000644
O        0.76563328       4.11269502      11.85062209       0.00001015      -0.00000212      -0.00000284
O        4.94716636       0.34063382      15.52145455      -0.00000657       0.00001392      -0.00000403
O        1.55861318      11.57122031       3.47397991       0.00000177       0.00001186       0.00000580
O        0.97897922       7.71277864       2.99593873      -0.00000694       0.00000716      -0.00001144
O        5.52717994       4.19923649      15.99931458      -0.00000014       0.00000857      -0.00000494
O        5.03392120       0.44005452      11.28979216       0.00000753       0.00002371      -0.00002171
O        1.47214851      11.47171109       7.70564469      -0.00001194       0.00001749      -0.00000861
O        5.40875331       6.90946527       9.72016435      -0.00000593       0.00001584       0.00001719
O        1.09789974       5.00210626       9.27479522      -0.00000633       0.00001554       0.00000926
O        6.03153516      11.17190544      -0.19173498      -0.00000362       0.00000716      -0.00001979
O        0.47405846       0.74076061      19.18695250      -0.00000557      -0.00001005       0.00000038
O        0.20044367       6.57836634      18.21630222      -0.00000214       0.00001450      -0.00000247
O        6.30572887       5.33417466       0.77845473      -0.00001288       0.00000500      -0.00000356
O       -3.26899266       7.33676516       6.30152824      -0.00002135       0.00002025      -0.00000055
O        9.77530099       4.57485190      12.69418351       0.00001934      -0.00000516      -0.00000355
O        3.00534356       7.13475770       8.02188800       0.00000856       0.00001195       0.00001816
O        3.50117750       4.77696541      10.97315155       0.00000443      -0.00000029       0.00001179
O        6.72930325      11.42745961      14.86291459      -0.00000672       0.00000663       0.00002667
O       -0.22239373       0.48432403       4.13169172      -0.00000844      -0.00000225       0.00002526
O        3.69275549       7.43317236       1.97151106      -0.00000546      -0.00000650       0.00000594
O        2.81333789       4.47910334      17.02352749      -0.00000454      -0.00000557       0.00000326
O       -0.75799335      12.85188771      13.43053194       0.00002265      -0.00001961      -0.00000173
O        7.26486733      -0.93925743       5.56414732      -0.00001716      -0.00000002       0.00001345
O        5.09860245       5.08169439       7.40469792       0.00001050       0.00000813      -0.00000240
O        1.40797629       6.83019351      11.59008344       0.00001043       0.00000828       0.00000280
O        5.09089980       0.44789353      18.49874125       0.00001047      -0.00001115       0.00000519
O        1.41472680      11.46420002       0.49667846      -0.00000367      -0.00000433       0.00000012
O        1.85685381       5.04460684       2.30235636      -0.00000300       0.00000289       0.00001490
O        4.64946531       6.86749593      16.69270605      -0.00000797       0.00000097       0.00001242
O        2.39234842       1.33690287      10.72413913      -0.00000896       0.00001219       0.00000305
O        4.11398364      10.57528200       8.27077353       0.00000442       0.00001553      -0.00000335
O        3.59681610       2.84378181       8.53765459      -0.00001739       0.00001472      -0.00000285
O        2.90997386       9.06795560      10.45714798      -0.00000069       0.00001263      -0.00000524
O        0.38444584       3.38742550      17.57446073       0.00001216       0.00001884       0.00000634
O        6.12151007       8.52507898       1.42049103       0.00000736       0.00001209       0.00000983
O        3.68617344       2.79499024       1.49100491       0.00001254      -0.00000137      -0.00000251
O        2.82028106       9.11731091      17.50381205       0.00000876       0.00000057      -0.00000198
O        6.47717015       4.42034464      11.02215023      -0.00000122      -0.00002366       0.00000910
O        0.02934941       7.49131445       7.97310770      -0.00001384      -0.00001721      -0.00000618
O        2.35195088       4.52193198       6.53551974       0.00001978       0.00002249      -0.00000622
O        4.15458695       7.38983492      12.45944325       0.00001844       0.00000631      -0.00000244
O       -0.47091313       0.88811621      18.37346665      -0.00000495       0.00000368       0.00000325
O        6.97660256      11.02455390       0.62164420      -0.00002239       0.00000419      -0.00000150
O        4.55673877       4.92645074       3.32467903       0.00001241      -0.00001579       0.00000314
O        1.94962830       6.98584109      15.67020776       0.00000314      -0.00002777      -0.00001003
O        9.11855466       3.53035881      11.98162495       0.00000311       0.00000088      -0.00001603
O       -2.61218692       8.38124397       7.01405506       0.00001289       0.00002049      -0.00000854
O        4.51258213       2.73316192       5.83052418       0.00000945      -0.00000176      -0.00000069
O        1.99405955       9.17879054      13.16421487       0.00000605      -0.00000195      -0.00000600
O        3.90892683       2.80959842      13.89353861       0.00000593       0.00000237      -0.00001423
O        2.59721401       9.10234249       5.10181658       0.00000064       0.00000318      -0.00001846
O        2.31722215       3.00713944       4.01267329      -0.00000054      -0.00000432      -0.00001073
O        4.18934522       8.90487759      14.98222259      -0.00000461      -0.00001173      -0.00001015
O        0.95531691       1.84670124      14.83322159      -0.00000204       0.00001125      -0.00001100
O        5.55071350      10.06554882       4.16190318      -0.00000665      -0.00000289      -0.00000561
O        2.02654310       1.26145963       6.39668603      -0.00000113      -0.00000110       0.00000691
O        4.48025204      10.65031111      12.59812624       0.00000193       0.00000557      -0.00000011
O        0.13169795       4.68015717      15.24812554      -0.00000291       0.00000044       0.00001033
O        6.37452790       7.23221564       3.74673074       0.00002263      -0.00000653      -0.00000421
O        3.73462992       0.54207425       4.13454087      -0.00000434      -0.00000762       0.00000347
O        2.77201781      11.36997383      14.86005782      -0.00000211      -0.00000686      -0.00000448
O        5.71873814       5.29676627      13.39358978       0.00002258      -0.00000593       0.00000165
O        0.78758665       6.61502838       5.60156097       0.00002303      -0.00000232       0.00000386
O       -0.45321050       4.61243807       6.88969971      -0.00000866       0.00000702       0.00001765
O        6.95974876       7.29921209      12.10533409      -0.00000837       0.00001175       0.00001262
O        0.42018258      10.74316309      16.77953098       0.00001142      -0.00001230      -0.00000563
O        5.57141260      14.59921880      14.46295914       0.00000168       0.00000980       0.00000040
O        3.52603414      12.35689153      17.65080472      -0.00000587       0.00001566      -0.00000970
O        4.87081707      15.01144112      13.52867606      -0.00001679       0.00001063       0.00000877
O        1.63698247      -3.10011024       5.46493925       0.00001085      -0.00001272      -0.00000709
O        2.98086205      -0.44468050       1.34367394      -0.00001649       0.00000616       0.00000755
O        0.93610964      -2.68793394       4.53083980       0.00001371       0.00000559      -0.00000795
O        6.08646201       1.16938648       2.21516698       0.00000592      -0.00001118       0.00000411
O        7.78393419       3.79993138       4.85206513      -0.00000799      -0.00002923      -0.00000843
O       -1.27731275       8.11253124      14.14219877       0.00000399       0.00001573       0.00001261
O        6.83264173      14.24069788      11.68574241      -0.00000764       0.00000263       0.00000597
O        3.21463863      12.16847736      10.16260660      -0.00000183       0.00000937       0.00000377
O        7.24974020      13.48505526      12.56905199      -0.00002901       0.00000606       0.00001793
O        6.30132694      10.22195937      10.43394564      -0.00000538      -0.00001776       0.00000298
O        0.20528780       1.68992759       8.56071914      -0.00001905      -0.00001286      -0.00000886
O       -0.74164903      -1.57378734       6.42518982       0.00001239      -0.00001446      -0.00001137
O        3.29172706      -0.25667848       8.83262076      -0.00002129       0.00000029       0.00000099
O       -0.32436774      -2.32953420       7.30832217      -0.00000496       0.00000691       0.00000988
O        5.42052248      -2.24716509      16.98837738      -0.00001169      -0.00000767       0.00000700
O        3.08083224      -0.10883340      17.63489140      -0.00000185      -0.00000054      -0.00000387
O        3.42476630      12.02110714       1.36047656       0.00000840      -0.00000292      -0.00000110
O        1.08482434      14.15906891       2.00729462       0.00000471       0.00001991       0.00001441
O        1.35479991       7.06924117       0.23951098      -0.00000872      -0.00000911      -0.00000883
O        5.15117782       4.84292595      18.75569261       0.00000568      -0.00000066       0.00000118
O        2.91970604      -1.71558552      11.32225189       0.00001708      -0.00000355      -0.00000009
O        3.58590229      13.62776429       7.67309439       0.00001015       0.00000965      -0.00002001
O       -1.65754268       2.47378524      16.27169642       0.00002486      -0.00002368       0.00002056
O       -3.24504124       4.80958065      11.79645818      -0.00002572       0.00000185       0.00001090
O        6.75972841       2.90098204      13.63945180       0.00002006      -0.00000972       0.00001127
O       10.37586898       7.47910289      15.78998909      -0.00002587      -0.00002045      -0.00000161
O       -3.87216310       4.43050320       3.20939003       0.00002618       0.00002134      -0.00001404
O       -0.25357734       9.01077990       5.35593117       0.00000416      -0.00001316       0.00000068
O        9.75159802       7.10243047       7.19807361       0.00000258       0.00000888      -0.00000794
O        8.16350480       9.43883031       2.72316287       0.00002084      -0.00000270       0.00001003
O       -2.32698416       3.24275008      19.27729568      -0.00000241      -0.00000783       0.00000344
O        8.83279506       8.67016601      -0.28254836      -0.00001001      -0.00001099      -0.00000046
O        8.64476600       5.30481247      13.31387206       0.00001839       0.00001020       0.00000632
O       -2.13853086       6.60690437       5.68161797      -0.00001953      -0.00001317      -0.00001054
O        7.04354188       2.42646530      -1.53993880       0.00000877       0.00001805      -0.00000522
O        8.14522903       2.57087807      -1.00144957      -0.00001057      -0.00002165       0.00003195
O        8.62910754       3.70529813       3.95915568      -0.00000891       0.00000045       0.00000147
O       -2.12252914       8.20734224      15.03504817       0.00000522      -0.00000053       0.00000526
O       -1.63941767       9.34186016      19.99567270       0.00000784       0.00001999      -0.00002496
O       -0.53775755       9.48620460      20.53423375      -0.00001212      -0.00001963       0.00001333
O        3.70216800       0.58941897      18.69520073       0.00000815       0.00000082       0.00000247
O        4.90309822       3.63249032      19.22012296       0.00000268       0.00000153       0.00000796
O        1.60281512       8.27968378      -0.22492850       0.00000676      -0.00000260       0.00000434
O        2.80346758      11.32288605       0.30012744       0.00000196      -0.00002057       0.00000666
O       -1.34106127       4.15273676       7.65225245      -0.00002141       0.00000014      -0.00001250
O       -2.66893601       3.81165486      11.15296209      -0.00002746      -0.00000031      -0.00001282
O        9.17561184       8.10022526       7.84188609      -0.00001853      -0.00000792       0.00002645
O        7.84760682       7.75894927      11.34279789      -0.00000949      -0.00002404       0.00000128
O       -0.60869986       1.67902948       3.57062986       0.00000160      -0.00000334      -0.00000343
O       -0.93786318       2.62334710       4.48709188       0.00000423       0.00001998      -0.00001315
O        8.30007336      -0.30223054       6.08080428      -0.00000284      -0.00000134      -0.00000271
O        8.32502049       1.00874295       5.90411181      -0.00001447       0.00000621      -0.00000907
O       -1.81775828      10.90379578      13.08986911      -0.00001192      -0.00000474       0.00000774
O       -1.79291596      12.21480433      12.91338513       0.00000208       0.00000339      -0.00000073
O        7.44452636       9.28831524      14.50777415      -0.00000620       0.00000676      -0.00000854
O        7.11543430      10.23275966      15.42411677       0.00000440       0.00001170       0.00001092
O       -2.94898368       4.93386927       2.57468325      -0.00002125      -0.00001157      -0.00000431
O        8.97768873       6.24277337       6.56054610      -0.00000542       0.00000068      -0.00000050
O       -2.47125750       5.66931479      12.43403652       0.00000290       0.00000016      -0.00000335
O        9.45103805       6.97629891      16.42273771       0.00004066       0.00001290       0.00000510
O        3.50655143      -1.94540688      12.83474202       0.00001388      -0.00000527       0.00000565
O        4.45542458      -2.75508908      12.85761526       0.00001560      -0.00000593      -0.00000640
O        2.04961159      14.66710432       6.13819373      -0.00000907      -0.00000077       0.00000290
O        2.99868868      13.85765044       6.16076272       0.00000926       0.00000785      -0.00001494
Na       4.85280854      12.49329550      15.83373516       0.00000144       0.00000254       0.00000659
Na       1.65405807      -0.58141570       3.16070348      -0.00000358      -0.00000067       0.00000717
